Version 4.1
SHEET 1 2376 1236
WIRE 192 48 -176 48
WIRE 416 48 192 48
WIRE 624 48 416 48
WIRE 1040 48 624 48
WIRE 192 144 192 48
WIRE 192 144 32 144
WIRE 624 144 624 48
WIRE 784 144 624 144
WIRE -1120 176 -1120 -32
WIRE -768 176 -768 -32
WIRE -464 176 -464 -32
WIRE 192 240 192 144
WIRE 624 240 624 144
WIRE 32 288 32 144
WIRE 192 288 32 288
WIRE 400 288 240 288
WIRE 576 288 400 288
WIRE 592 288 576 288
WIRE 784 288 784 144
WIRE 784 288 624 288
WIRE 1040 288 1040 48
WIRE 1248 288 1040 288
WIRE 1040 432 1040 288
WIRE -176 448 -176 48
WIRE 192 464 192 336
WIRE 400 464 400 288
WIRE 400 464 192 464
WIRE 624 480 624 336
WIRE 800 480 624 480
WIRE 992 480 800 480
WIRE 1248 480 1248 288
WIRE 1248 480 1040 480
WIRE 800 512 800 480
WIRE -1120 592 -1120 256
WIRE -768 592 -768 256
WIRE -768 592 -1120 592
WIRE -464 592 -464 256
WIRE -464 592 -768 592
WIRE 880 592 800 592
WIRE 1040 592 1040 528
WIRE 1040 592 944 592
WIRE 192 624 192 464
WIRE 624 624 624 480
WIRE -768 640 -768 592
WIRE 1040 640 1040 592
WIRE 1408 640 1040 640
WIRE 144 672 16 672
WIRE 800 672 672 672
WIRE 192 768 192 720
WIRE 400 768 192 768
WIRE 624 768 624 720
WIRE 624 768 400 768
WIRE -176 800 -176 528
WIRE 16 800 -176 800
WIRE 624 800 272 800
WIRE 1408 800 1408 640
WIRE -176 880 -176 800
WIRE 400 880 400 768
WIRE 1040 880 1040 640
WIRE 16 928 16 800
WIRE 16 928 -128 928
WIRE 272 928 272 800
WIRE 272 928 16 928
WIRE 352 928 272 928
WIRE 624 928 624 800
WIRE 992 928 624 928
WIRE -176 1136 -176 976
WIRE 400 1136 400 976
WIRE 400 1136 -176 1136
WIRE 1040 1136 1040 976
WIRE 1040 1136 400 1136
WIRE 1408 1184 1408 864
WIRE 400 1200 400 1136
FLAG -768 640 0
FLAG 400 1200 0
FLAG 1040 928 0
FLAG 192 672 0
FLAG 624 672 0
FLAG 400 928 0
FLAG 1408 1184 0
FLAG -1120 -32 Vin1
FLAG -768 -32 Vin2
FLAG -464 -32 VDD
FLAG 416 48 VDD
FLAG -176 928 0
FLAG 16 672 Vin1
FLAG 800 672 Vin2
DATAFLAG 400 784 ""
DATAFLAG 1280 640 ""
DATAFLAG 368 48 ""
DATAFLAG 448 288 ""
DATAFLAG 656 480 ""
DATAFLAG 96 928 ""
DATAFLAG -176 704 ""
DATAFLAG 192 576 ""
DATAFLAG 624 576 ""
DATAFLAG 64 672 ""
DATAFLAG 720 672 ""
DATAFLAG 560 1136 ""
DATAFLAG 768 928 ""
DATAFLAG 1040 992 ""
DATAFLAG 1136 480 ""
SYMBOL 035_ltspice_lib\\nmos_035 144 624 R0
SYMATTR InstName M1
SYMATTR Value2 l=0.5u w=2u m=4
SYMATTR SpiceLine ""
SYMBOL nmos_035 672 624 M0
SYMATTR InstName M2
SYMATTR Value2 l=0.5u w=2u m=4
SYMATTR SpiceLine ""
SYMBOL nmos_035 352 880 R0
SYMATTR InstName M5
SYMATTR Value2 l=1u w=0.5u m=32
SYMATTR SpiceLine ""
SYMBOL nmos_035 992 880 R0
SYMATTR InstName M7
SYMATTR Value2 l=1u w=0.5u m=64
SYMATTR SpiceLine ""
SYMBOL nmos_035 -128 880 M0
SYMATTR InstName M0
SYMATTR Value2 l=1u w=0.5u m=2
SYMATTR SpiceLine ""
SYMBOL 035_ltspice_lib\\pmos_035 240 240 M0
SYMATTR InstName M3
SYMATTR Value2 l=1u w=1u m=2
SYMATTR SpiceLine ""
SYMBOL 035_ltspice_lib\\pmos_035 576 240 R0
SYMATTR InstName M4
SYMATTR Value2 l=1u w=1u m=2
SYMATTR SpiceLine ""
SYMBOL 035_ltspice_lib\\pmos_035 992 432 R0
SYMATTR InstName M6
SYMATTR Value2 l=1u w=1u m=8
SYMATTR SpiceLine ""
SYMBOL voltage -1120 160 R0
WINDOW 123 24 124 Left 2
WINDOW 39 0 0 Left 0
SYMATTR InstName V1
SYMATTR Value 1.65
SYMBOL voltage -768 160 R0
WINDOW 123 24 124 Left 2
WINDOW 39 0 0 Left 0
SYMATTR Value2 AC 1
SYMATTR InstName V2
SYMATTR Value SINE(1.65 10u 10k 0 0 0 0)
SYMBOL voltage -464 160 R0
WINDOW 123 0 0 Left 0
WINDOW 39 0 0 Left 0
SYMATTR InstName V3
SYMATTR Value 3.3
SYMBOL current -176 448 R0
WINDOW 123 0 0 Left 0
WINDOW 39 0 0 Left 0
SYMATTR InstName I1
SYMATTR Value 1”
SYMBOL cap 1392 800 R0
SYMATTR InstName C2
SYMATTR Value 1p
SYMBOL cap 944 576 R90
WINDOW 0 0 32 VBottom 2
WINDOW 3 32 32 VTop 2
SYMATTR InstName C1
SYMATTR Value 0.3p
SYMBOL res 784 496 R0
SYMATTR InstName R1
SYMATTR Value 40k
TEXT 1248 -160 Left 2 !.include "C:\\Users\\MSI LAPTOP\\AppData\\Local\\LTspice\\lib\\sym\\035_ltspice_lib\\5827_035.lib"
TEXT 1256 -56 Left 2 !.op
TEXT 1256 40 Left 2 ;.tran 0.1m
TEXT 1256 0 Left 2 !.option logopinfo
TEXT 1256 88 Left 2 ;.ac dec 100 1 1G
